#!/sbin/sh

#################
# Initialization
#################

umask 022

# Function to print messages to the UI
ui_print() { echo "$1"; }

# Require a newer version of Magisk
require_new_magisk() {
  ui_print "*******************************"
  ui_print " Please install Magisk v20.4+! "
  ui_print "*******************************"
  exit 1
}

#########################
# Load util_functions.sh
#########################

OUTFD=$2
ZIPFILE=$3
SKIPUNZIP=1

mount /data 2>/dev/null

# Check for util_functions.sh and Magisk version
[ -f /data/adb/magisk/util_functions.sh ] || require_new_magisk
. /data/adb/magisk/util_functions.sh
[ $MAGISK_VER_CODE -lt 20400 ] && require_new_magisk

Initialize the module setup
setup_module() {
    set -x

    # Remove existing logs and files
    rm -rf "$1/log.txt" "$1/changelog.txt" "$1/LICENSE" "$1/README.md" 2>/dev/null

    # Set permissions
    set_perm_recursive "$1" 0 0 0755 0644
    set_perm "$1/service.sh" 0 0 0777 0777

    # Extract files
    ui_print "- Extracting files"
    unzip -o "$2" module.prop -d "$1" >&2
    unzip -o "$2" service.sh -d "$1" >&2

    # Gather properties
    local cn=$(grep_prop Codename "$1/module.prop" 2>/dev/null)
    local mdl=$(getprop ro.product.system.model 2>/dev/null)
    local rel=$(getprop ro.system.build.version.release 2>/dev/null)
    local hw=$(grep 'Hardware' /proc/cpuinfo 2>/dev/null)
    local f1=$(find /sys/module -name high_perf_mode)
    local f2=$(find /sys/module -name cpe_debug_mode)
    local f3=$(find /sys/module -name impedance_detect_en)

    # Detect hardware and kernel support
    [[ "$hw" != *Qualcomm* ]] && abort "- ! Unsupported hardware detected."
    [[ -z "$f1" || -z "$f2" || -z "$f3" ]] && abort "- ! Kernel is not supported."

    # Print device info
    ui_print ""
    ui_print "• Device : $mdl"
    ui_print "• Android : $rel"
    ui_print "• Hardware : $hw"
    ui_print "• Codename : $cn"
}

# Call setup_module with parameters
setup_module "$MODPATH" "$ZIPFILE"

exit 0
