#!/sbin/sh

#################
# Initialization
#################

umask 022

# echo before loading util_functions
ui_print() { echo "$1"; }

require_new_magisk() {
  ui_print "*******************************"
  ui_print " Please install Magisk v20.4+! "
  ui_print "*******************************"
  exit 1
}

startup() {
set -x
print
}

#########################
# Load util_functions.sh
#########################

OUTFD=$2
ZIPFILE=$3
SKIPUNZIP=1
MODLOG=/data/akera/high_perf_dac.txt
CODENAME=$(grep_prop Codename $MODPATH/module.prop 2>/dev/null)
MODEL=$(getprop ro.product.system.model 2>/dev/null)
RELEASE=$(getprop ro.system.build.version.release 2>/dev/null)
HARDWARE=$(getprop ro.hardware 2>/dev/null)
FILE1=$(find /sys/module -name high_perf_mode)
FILE2=$(find /sys/module -name cpe_debug_mode)
FILE3=$(find /sys/module -name impedance_detect_en)

mount /data 2>/dev/null

[ -f /data/adb/magisk/util_functions.sh ] || require_new_magisk
. /data/adb/magisk/util_functions.sh
[ $MAGISK_VER_CODE -lt 20400 ] && require_new_magisk

install_module
startup
exit 0
